CHEMBL4457733
     RDKit          3D

 43 47  0  0  0  0  0  0  0  0999 V2000
   -1.2340    1.4724    2.3207 C   0  0  0  0  0  0  0  0  0  0  0  0
   -2.0281    1.0531    1.2041 O   0  0  0  0  0  0  0  0  0  0  0  0
   -2.0861    1.6773   -0.0527 C   0  0  0  0  0  0  0  0  0  0  0  0
   -1.6109    2.9822   -0.2768 C   0  0  0  0  0  0  0  0  0  0  0  0
   -1.5252    3.4948   -1.5823 C   0  0  0  0  0  0  0  0  0  0  0  0
   -0.8561    4.7075   -1.8957 C   0  0  0  0  0  0  0  0  0  0  0  0
   -0.2020    5.5070   -0.9400 O   0  0  0  0  0  0  0  0  0  0  0  0
    0.7119    5.0851    0.0433 C   0  0  0  0  0  0  0  0  0  0  0  0
    1.3504    3.8326   -0.0037 C   0  0  0  0  0  0  0  0  0  0  0  0
    2.1651    3.4199    1.0558 C   0  0  0  0  0  0  0  0  0  0  0  0
    2.3730    4.2656    2.1541 C   0  0  0  0  0  0  0  0  0  0  0  0
    3.1471    3.8565    3.2867 N   0  0  0  0  0  2  0  0  0  0  0  0
    2.7829    2.4364    4.2127 S   0  0  0  0  0  0  0  0  0  0  0  0
    4.0712    1.7257    4.4940 O   0  0  0  0  0  0  0  0  0  0  0  0
    1.8688    1.5248    3.4495 O   0  0  0  0  0  0  0  0  0  0  0  0
    1.9840    2.8920    5.7195 C   0  0  0  0  0  0  0  0  0  0  0  0
    1.2126    4.0644    5.7807 C   0  0  0  0  0  0  0  0  0  0  0  0
    0.5348    4.4078    6.9555 C   0  0  0  0  0  0  0  0  0  0  0  0
   -0.2442    5.5169    7.0026 F   0  0  0  0  0  0  0  0  0  0  0  0
    0.6274    3.5798    8.0820 C   0  0  0  0  0  0  0  0  0  0  0  0
    1.3989    2.4154    8.0293 C   0  0  0  0  0  0  0  0  0  0  0  0
    2.0701    2.0649    6.8521 C   0  0  0  0  0  0  0  0  0  0  0  0
    2.8122    0.9256    6.8187 F   0  0  0  0  0  0  0  0  0  0  0  0
    1.8246    5.5525    2.1478 C   0  0  0  0  0  0  0  0  0  0  0  0
    0.9937    5.9580    1.1014 C   0  0  0  0  0  0  0  0  0  0  0  0
    0.4234    7.1894    1.1201 F   0  0  0  0  0  0  0  0  0  0  0  0
   -0.8671    5.1655   -3.2165 C   0  0  0  0  0  0  0  0  0  0  0  0
   -1.4807    4.4146   -4.2102 C   0  0  0  0  0  0  0  0  0  0  0  0
   -2.0902    3.2427   -3.9048 N   0  0  0  0  0  0  0  0  0  0  0  0
   -2.1227    2.7627   -2.6377 C   0  0  0  0  0  0  0  0  0  0  0  0
   -2.7217    1.5277   -2.3913 C   0  0  0  0  0  0  0  0  0  0  0  0
   -2.6432    0.9490   -1.1142 C   0  0  0  0  0  0  0  0  0  0  0  0
   -3.0731   -0.3693   -0.8631 O   0  0  0  0  0  0  0  0  0  0  0  0
   -3.7866   -1.2258   -1.7685 C   0  0  0  0  0  0  0  0  0  0  0  0
   -2.9317   -1.7978   -2.9193 C   0  0  0  0  0  0  0  0  0  0  0  0
   -1.4139   -1.6253   -2.7286 C   0  0  0  0  0  0  0  0  0  0  0  0
   -0.6220   -2.2585   -3.8174 N   0  0  1  0  0  4  0  0  0  0  0  0
   -0.7676   -1.5280   -5.1242 C   0  0  0  0  0  0  0  0  0  0  0  0
    0.5309   -0.8882   -5.6411 C   0  0  0  0  0  0  0  0  0  0  0  0
    1.2090   -0.1475   -4.4979 C   0  0  0  0  0  0  0  0  0  0  0  0
    1.6323   -1.1264   -3.3840 C   0  0  1  0  0  0  0  0  0  0  0  0
    1.6487   -0.4355   -2.0106 C   0  0  0  0  0  0  0  0  0  0  0  0
    0.7976   -2.4374   -3.3977 C   0  0  0  0  0  0  0  0  0  0  0  0
  1  2  1  0
  2  3  1  0
  3  4  2  0
  4  5  1  0
  5  6  2  0
  6  7  1  0
  7  8  1  0
  8  9  2  0
  9 10  1  0
 10 11  2  0
 11 12  1  0
 12 13  1  0
 13 14  2  0
 13 15  2  0
 13 16  1  0
 16 17  2  0
 17 18  1  0
 18 19  1  0
 18 20  2  0
 20 21  1  0
 21 22  2  0
 22 23  1  0
 11 24  1  0
 24 25  2  0
 25 26  1  0
  6 27  1  0
 27 28  2  0
 28 29  1  0
 29 30  2  0
 30 31  1  0
 31 32  2  0
 32 33  1  0
 33 34  1  0
 34 35  1  0
 35 36  1  0
 37 36  1  1
 37 38  1  0
 38 39  1  0
 39 40  1  0
 40 41  1  0
 41 42  1  1
 41 43  1  0
 32  3  1  0
 43 37  1  0
 30  5  1  0
 25  8  1  0
 22 16  1  0
M  CHG  2  12  -1  37   1
M  END
$$$$
CHEMBL4164936
     RDKit          3D

 39 43  0  0  0  0  0  0  0  0999 V2000
   -2.7539    2.6395   -6.1804 N   0  0  0  0  0  2  0  0  0  0  0  0
   -3.1553    3.3648   -4.6638 S   0  0  0  0  0  0  0  0  0  0  0  0
   -4.6296    3.6565   -4.6287 O   0  0  0  0  0  0  0  0  0  0  0  0
   -2.4023    4.6559   -4.5088 O   0  0  0  0  0  0  0  0  0  0  0  0
   -2.7165    2.2718   -3.3543 C   0  0  0  0  0  0  0  0  0  0  0  0
   -1.3657    2.0441   -3.0643 C   0  0  0  0  0  0  0  0  0  0  0  0
   -1.0033    1.1738   -2.0332 C   0  0  0  0  0  0  0  0  0  0  0  0
   -1.9897    0.5249   -1.2748 C   0  0  0  0  0  0  0  0  0  0  0  0
   -1.6175   -0.3749   -0.2107 N   0  0  0  0  0  0  0  0  0  0  0  0
   -1.9262   -0.0753    1.0946 C   0  0  0  0  0  0  0  0  0  0  0  0
   -2.6866    1.4949    1.5537 S   0  0  0  0  0  0  0  0  0  0  0  0
   -1.1647    2.2325    2.2464 C   0  0  0  0  0  0  0  0  0  0  0  0
   -0.0765    2.3151    1.2232 C   0  0  0  0  0  0  0  0  0  0  0  0
   -0.1674    3.1576    0.2906 O   0  0  0  0  0  0  0  0  0  0  0  0
    1.0367    1.4085    1.2836 N   0  0  0  0  0  0  0  0  0  0  0  0
    2.0829    1.3901    0.3017 C   0  0  0  0  0  0  0  0  0  0  0  0
    2.3467    0.1961   -0.3826 C   0  0  0  0  0  0  0  0  0  0  0  0
    3.3465    0.1378   -1.3575 C   0  0  0  0  0  0  0  0  0  0  0  0
    3.6065   -1.3730   -2.2172 Cl  0  0  0  0  0  0  0  0  0  0  0  0
    4.1159    1.2789   -1.6354 C   0  0  0  0  0  0  0  0  0  0  0  0
    5.3878    1.2476   -2.8487 Cl  0  0  0  0  0  0  0  0  0  0  0  0
    3.8835    2.4628   -0.9277 C   0  0  0  0  0  0  0  0  0  0  0  0
    2.8782    2.5250    0.0444 C   0  0  0  0  0  0  0  0  0  0  0  0
    2.7090    4.0046    0.9819 Cl  0  0  0  0  0  0  0  0  0  0  0  0
   -1.6227   -0.9507    2.0865 N   0  0  0  0  0  0  0  0  0  0  0  0
   -0.9940   -2.1234    1.8325 C   0  0  0  0  0  0  0  0  0  0  0  0
   -0.6852   -2.9903    2.8862 C   0  0  0  0  0  0  0  0  0  0  0  0
   -0.0284   -4.2028    2.6332 C   0  0  0  0  0  0  0  0  0  0  0  0
    0.2838   -5.0803    3.6837 C   0  0  0  0  0  0  0  0  0  0  0  0
    0.9365   -6.2885    3.4191 C   0  0  0  0  0  0  0  0  0  0  0  0
    1.2811   -6.6292    2.1086 C   0  0  0  0  0  0  0  0  0  0  0  0
    0.9776   -5.7638    1.0537 C   0  0  0  0  0  0  0  0  0  0  0  0
    0.3230   -4.5473    1.3051 C   0  0  0  0  0  0  0  0  0  0  0  0
    0.0134   -3.6726    0.2523 C   0  0  0  0  0  0  0  0  0  0  0  0
   -0.6461   -2.4574    0.5110 C   0  0  0  0  0  0  0  0  0  0  0  0
   -0.9815   -1.5536   -0.5125 C   0  0  0  0  0  0  0  0  0  0  0  0
   -0.7027   -1.8350   -1.7136 O   0  0  0  0  0  0  0  0  0  0  0  0
   -3.3430    0.7398   -1.5793 C   0  0  0  0  0  0  0  0  0  0  0  0
   -3.7040    1.6122   -2.6103 C   0  0  0  0  0  0  0  0  0  0  0  0
  1  2  1  0
  2  3  2  0
  2  4  2  0
  2  5  1  0
  5  6  2  0
  6  7  1  0
  7  8  2  0
  8  9  1  0
  9 10  1  0
 10 11  1  0
 11 12  1  0
 12 13  1  0
 13 14  2  0
 13 15  1  0
 15 16  1  0
 16 17  2  0
 17 18  1  0
 18 19  1  0
 18 20  2  0
 20 21  1  0
 20 22  1  0
 22 23  2  0
 23 24  1  0
 10 25  2  0
 25 26  1  0
 26 27  2  0
 27 28  1  0
 28 29  2  0
 29 30  1  0
 30 31  2  0
 31 32  1  0
 32 33  2  0
 33 34  1  0
 34 35  2  0
 35 36  1  0
 36 37  2  0
  8 38  1  0
 38 39  2  0
 39  5  1  0
 36  9  1  0
 23 16  1  0
 35 26  1  0
 33 28  1  0
M  CHG  1   1  -1
M  END
$$$$
CHEMBL1830130
     RDKit          3D

 18 19  0  0  0  0  0  0  0  0999 V2000
   -1.5825    1.5449    1.9437 C   0  0  0  0  0  0  0  0  0  0  0  0
   -2.0363    2.1460    0.6695 C   0  0  0  0  0  0  0  0  0  0  0  0
   -2.5344    3.3012    0.6976 O   0  0  0  0  0  0  0  0  0  0  0  0
   -1.9381    1.4709   -0.5933 N   0  0  0  0  0  2  0  0  0  0  0  0
   -1.9585    0.0523   -0.8035 C   0  0  0  0  0  0  0  0  0  0  0  0
   -2.6497   -0.8114    0.0625 C   0  0  0  0  0  0  0  0  0  0  0  0
   -2.6255   -2.1910   -0.1564 C   0  0  0  0  0  0  0  0  0  0  0  0
   -1.9160   -2.7179   -1.2388 C   0  0  0  0  0  0  0  0  0  0  0  0
   -1.2257   -1.8644   -2.1126 C   0  0  0  0  0  0  0  0  0  0  0  0
   -0.4835   -2.4226   -3.2901 C   0  0  0  0  0  0  0  0  0  0  0  0
   -1.2771   -0.4774   -1.9062 C   0  0  0  0  0  0  0  0  0  0  0  0
   -0.5103    0.7513    2.1004 C   0  0  0  0  0  0  0  0  0  0  0  0
    0.4835    0.4354    1.0526 C   0  0  0  0  0  0  0  0  0  0  0  0
    0.9269   -0.8888    0.9084 C   0  0  0  0  0  0  0  0  0  0  0  0
    1.8539   -1.2181   -0.0851 C   0  0  0  0  0  0  0  0  0  0  0  0
    2.3627   -0.2244   -0.9253 C   0  0  0  0  0  0  0  0  0  0  0  0
    1.9541    1.1024   -0.7655 C   0  0  0  0  0  0  0  0  0  0  0  0
    1.0249    1.4357    0.2249 C   0  0  0  0  0  0  0  0  0  0  0  0
  1  2  1  0
  2  3  2  0
  2  4  1  0
  4  5  1  0
  5  6  2  0
  6  7  1  0
  7  8  2  0
  8  9  1  0
  9 10  1  0
  9 11  2  0
  1 12  2  0
 12 13  1  0
 13 14  2  0
 14 15  1  0
 15 16  2  0
 16 17  1  0
 17 18  2  0
 11  5  1  0
 18 13  1  0
M  CHG  1   4  -1
M  END
$$$$
CHEMBL504173
     RDKit          3D

 20 20  0  0  0  0  0  0  0  0999 V2000
   -2.9516    0.3164   -0.1218 O   0  0  0  0  0  0  0  0  0  0  0  0
   -1.5616    0.3741    0.0205 C   0  0  0  0  0  0  0  0  0  0  0  0
   -0.7971   -0.7882    0.3159 C   0  0  0  0  0  0  0  0  0  0  0  0
   -1.4637   -2.1333    0.5987 C   0  0  0  0  0  0  0  0  0  0  0  0
   -1.5892   -2.9434   -0.6949 C   0  0  0  0  0  0  0  0  0  0  0  0
   -0.7466   -2.9527    1.6857 C   0  0  0  0  0  0  0  0  0  0  0  0
    0.6082   -0.6974    0.2868 C   0  0  0  0  0  0  0  0  0  0  0  0
    1.2521    0.5217    0.0460 C   0  0  0  0  0  0  0  0  0  0  0  0
    2.7303    0.6306    0.0547 C   0  0  0  0  0  0  0  0  0  0  0  0
    3.5654   -0.1903   -0.6164 C   0  0  0  0  0  0  0  0  0  0  0  0
    3.0462   -1.2283   -1.4805 C   0  0  0  0  0  0  0  0  0  0  0  0
    2.6307   -2.0582   -2.1722 N   0  0  0  0  0  0  0  0  0  0  0  0
    5.0378    0.0018   -0.5323 C   0  0  0  0  0  0  0  0  0  0  0  0
    5.5172    0.9066    0.2041 O   0  0  0  0  0  0  0  0  0  0  0  0
    5.9382   -0.8289   -1.2720 N   0  0  0  0  0  0  0  0  0  0  0  0
    0.4887    1.6771   -0.1269 C   0  0  0  0  0  0  0  0  0  0  0  0
   -0.9143    1.6226   -0.1541 C   0  0  0  0  0  0  0  0  0  0  0  0
   -1.6844    2.9141   -0.4099 C   0  0  0  0  0  0  0  0  0  0  0  0
   -2.4122    2.8871   -1.7599 C   0  0  0  0  0  0  0  0  0  0  0  0
   -2.6394    3.2543    0.7419 C   0  0  0  0  0  0  0  0  0  0  0  0
  1  2  1  0
  2  3  2  0
  3  4  1  0
  4  5  1  0
  4  6  1  0
  3  7  1  0
  7  8  2  0
  8  9  1  0
  9 10  2  0
 10 11  1  0
 11 12  3  0
 10 13  1  0
 13 14  2  0
 13 15  1  0
  8 16  1  0
 16 17  2  0
 17 18  1  0
 18 19  1  0
 18 20  1  0
 17  2  1  0
M  END
$$$$
CHEMBL4074615
     RDKit          3D

 44 49  0  0  0  0  0  0  0  0999 V2000
   -0.4700    1.8816    7.0916 C   0  0  0  0  0  0  0  0  0  0  0  0
    1.0147    1.2061    6.9072 C   0  0  0  0  0  0  0  0  0  0  0  0
    1.4540    1.8340    5.5723 C   0  0  0  0  0  0  0  0  0  0  0  0
    1.5676    3.1126    5.5523 O   0  0  0  0  0  0  0  0  0  0  0  0
    1.4459    1.0968    4.2220 N   0  0  2  0  0  4  0  0  0  0  0  0
    2.3469    1.7548    3.1999 C   0  0  0  0  0  0  0  0  0  0  0  0
    1.5834    1.6255    1.8485 C   0  0  0  0  0  0  0  0  0  0  0  0
    0.2500    0.9953    2.2391 C   0  0  2  0  0  0  0  0  0  0  0  0
   -0.9127    1.3138    1.3413 N   0  0  0  0  0  0  0  0  0  0  0  0
   -1.3790    2.6181    1.1098 C   0  0  0  0  0  0  0  0  0  0  0  0
   -1.0151    3.6322    1.7731 O   0  0  0  0  0  0  0  0  0  0  0  0
   -2.3437    2.7811    0.0378 N   0  0  0  0  0  0  0  0  0  0  0  0
   -2.9888    4.0395   -0.1052 C   0  0  0  0  0  0  0  0  0  0  0  0
   -2.5632    4.9248   -1.1013 C   0  0  0  0  0  0  0  0  0  0  0  0
   -3.2476    6.1359   -1.2660 C   0  0  0  0  0  0  0  0  0  0  0  0
   -2.7306    7.0405   -2.1945 O   0  0  0  0  0  0  0  0  0  0  0  0
   -3.3337    8.2647   -2.5737 C   0  0  0  0  0  0  0  0  0  0  0  0
   -4.3800    6.4053   -0.4462 C   0  0  0  0  0  0  0  0  0  0  0  0
   -4.8257    5.4899    0.5181 C   0  0  0  0  0  0  0  0  0  0  0  0
   -4.1210    4.2709    0.6953 C   0  0  0  0  0  0  0  0  0  0  0  0
   -4.5936    3.3439    1.5821 F   0  0  0  0  0  0  0  0  0  0  0  0
   -2.3867    1.7948   -1.0338 C   0  0  0  0  0  0  0  0  0  0  0  0
   -2.2678    0.3954   -0.4929 C   0  0  0  0  0  0  0  0  0  0  0  0
   -2.7447   -0.7439   -1.1762 C   0  0  0  0  0  0  0  0  0  0  0  0
   -2.3813   -1.9864   -0.7616 N   0  0  0  0  0  0  0  0  0  0  0  0
   -1.6938   -2.1707    0.4038 C   0  0  0  0  0  0  0  0  0  0  0  0
   -1.1523   -3.4250    0.7776 N   0  0  0  0  0  4  0  0  0  0  0  0
    0.0938   -3.6129    0.0507 C   0  0  0  0  0  0  0  0  0  0  0  0
    1.1742   -2.7571    0.3729 C   0  0  0  0  0  0  0  0  0  0  0  0
    2.3696   -2.8401   -0.3223 C   0  0  0  0  0  0  0  0  0  0  0  0
    2.5642   -3.8344   -1.3029 C   0  0  0  0  0  0  0  0  0  0  0  0
    3.8660   -3.9097   -1.9494 N   0  0  0  0  0  0  0  0  0  0  0  0
    4.9722   -3.0784   -1.4289 C   0  0  0  0  0  0  0  0  0  0  0  0
    6.3277   -3.5106   -1.9754 C   0  0  0  0  0  0  0  0  0  0  0  0
    6.3419   -3.5975   -3.4593 N   0  0  0  0  0  0  0  0  0  0  0  0
    7.5946   -4.2416   -3.8841 C   0  0  0  0  0  0  0  0  0  0  0  0
    5.1293   -4.2511   -4.0773 C   0  0  0  0  0  0  0  0  0  0  0  0
    4.1470   -4.8713   -3.0673 C   0  0  0  0  0  0  0  0  0  0  0  0
    1.5038   -4.7269   -1.5967 C   0  0  0  0  0  0  0  0  0  0  0  0
    0.2408   -4.5694   -0.9832 C   0  0  0  0  0  0  0  0  0  0  0  0
   -0.8444   -5.5524   -1.3293 C   0  0  0  0  0  0  0  0  0  0  0  0
   -1.2911   -1.0693    1.0843 N   0  0  0  0  0  0  0  0  0  0  0  0
   -1.4512    0.1741    0.6363 C   0  0  0  0  0  0  0  0  0  0  0  0
    0.0715    1.3336    3.6665 C   0  0  0  0  0  0  0  0  0  0  0  0
  1  2  1  0
  2  3  1  0
  3  4  2  0
  5  3  1  1
  5  6  1  0
  6  7  1  0
  7  8  1  0
  8  9  1  6
  9 10  1  0
 10 11  2  0
 10 12  1  0
 12 13  1  0
 13 14  2  0
 14 15  1  0
 15 16  1  0
 16 17  1  0
 15 18  2  0
 18 19  1  0
 19 20  2  0
 20 21  1  0
 12 22  1  0
 22 23  1  0
 23 24  2  0
 24 25  1  0
 25 26  2  0
 26 27  1  0
 27 28  1  0
 28 29  2  0
 29 30  1  0
 30 31  2  0
 31 32  1  0
 32 33  1  0
 33 34  1  0
 34 35  1  0
 35 36  1  0
 35 37  1  0
 37 38  1  0
 31 39  1  0
 39 40  2  0
 40 41  1  0
 26 42  1  0
 42 43  2  0
  8 44  1  0
 44  5  1  0
 43  9  1  0
 20 13  1  0
 43 23  1  0
 40 28  1  0
 38 32  1  0
M  CHG  2   5   1  27   1
M  END
$$$$
CHEMBL255871
     RDKit          3D

 29 32  0  0  0  0  0  0  0  0999 V2000
    4.4000   -1.6839   -0.9576 C   0  0  0  0  0  0  0  0  0  0  0  0
    3.8865   -0.9784    0.1593 O   0  0  0  0  0  0  0  0  0  0  0  0
    3.8558    0.3972    0.1568 N   0  0  0  0  0  0  0  0  0  0  0  0
    3.3639    1.0460    1.1610 C   0  0  0  0  0  0  0  0  0  0  0  0
    3.3620    2.5236    1.1840 C   0  0  0  0  0  0  0  0  0  0  0  0
    3.8436    3.2132    2.3203 C   0  0  0  0  0  0  0  0  0  0  0  0
    4.3971    2.5217    3.4464 N   0  0  0  0  0  0  0  0  0  0  0  0
    3.8153    4.5708    2.3455 N   0  0  0  0  0  0  0  0  0  0  0  0
    3.3293    5.2884    1.3056 C   0  0  0  0  0  0  0  0  0  0  0  0
    2.8483    4.6543    0.2103 N   0  0  0  0  0  0  0  0  0  0  0  0
    2.8462    3.2969    0.1090 C   0  0  0  0  0  0  0  0  0  0  0  0
    2.2387    2.6981   -1.0572 N   0  0  0  0  0  4  0  0  0  0  0  0
    0.9398    2.1575   -0.7348 C   0  0  0  0  0  0  0  0  0  0  0  0
    0.6877    0.7631   -0.8619 C   0  0  0  0  0  0  0  0  0  0  0  0
   -0.5757    0.2260   -0.5542 C   0  0  0  0  0  0  0  0  0  0  0  0
   -1.5699    1.1081   -0.1321 C   0  0  0  0  0  0  0  0  0  0  0  0
   -1.3401    2.4482   -0.0238 C   0  0  0  0  0  0  0  0  0  0  0  0
   -2.5331    3.0005    0.3898 C   0  0  0  0  0  0  0  0  0  0  0  0
   -3.4418    2.0036    0.5170 N   0  0  0  0  0  0  0  0  0  0  0  0
   -2.8486    0.8546    0.2076 N   0  0  0  0  0  0  0  0  0  0  0  0
   -3.5433   -0.4304    0.1674 C   0  0  0  0  0  0  0  0  0  0  0  0
   -4.0125   -0.7203   -1.2323 C   0  0  0  0  0  0  0  0  0  0  0  0
   -3.3738   -1.6974   -2.0142 C   0  0  0  0  0  0  0  0  0  0  0  0
   -3.8003   -1.9407   -3.3235 C   0  0  0  0  0  0  0  0  0  0  0  0
   -4.8629   -1.2100   -3.8618 C   0  0  0  0  0  0  0  0  0  0  0  0
   -5.5014   -0.2337   -3.0917 C   0  0  0  0  0  0  0  0  0  0  0  0
   -6.5304    0.4767   -3.6158 F   0  0  0  0  0  0  0  0  0  0  0  0
   -5.0777    0.0125   -1.7817 C   0  0  0  0  0  0  0  0  0  0  0  0
   -0.1065    3.0179   -0.3194 C   0  0  0  0  0  0  0  0  0  0  0  0
  1  2  1  0
  2  3  1  0
  3  4  2  0
  4  5  1  0
  5  6  2  0
  6  7  1  0
  6  8  1  0
  8  9  2  0
  9 10  1  0
 10 11  2  0
 11 12  1  0
 12 13  1  0
 13 14  2  0
 14 15  1  0
 15 16  2  0
 16 17  1  0
 17 18  1  0
 18 19  2  0
 19 20  1  0
 20 21  1  0
 21 22  1  0
 22 23  2  0
 23 24  1  0
 24 25  2  0
 25 26  1  0
 26 27  1  0
 26 28  2  0
 17 29  2  0
 11  5  1  0
 29 13  1  0
 20 16  1  0
 28 22  1  0
M  CHG  1  12   1
M  END
$$$$
CHEMBL2424807
     RDKit          3D

 27 30  0  0  0  0  0  0  0  0999 V2000
    0.9878   -5.3885    5.6331 Cl  0  0  0  0  0  0  0  0  0  0  0  0
    0.3418   -4.8890    4.0807 C   0  0  0  0  0  0  0  0  0  0  0  0
   -0.0160   -5.8504    3.1302 C   0  0  0  0  0  0  0  0  0  0  0  0
   -0.5215   -5.4536    1.8895 C   0  0  0  0  0  0  0  0  0  0  0  0
   -0.6747   -4.0954    1.5962 C   0  0  0  0  0  0  0  0  0  0  0  0
   -0.3306   -3.1198    2.5494 C   0  0  0  0  0  0  0  0  0  0  0  0
   -0.4546   -1.7153    2.2355 N   0  0  0  0  0  4  0  0  0  0  0  0
    0.7454   -1.1711    1.6317 C   0  0  0  0  0  0  0  0  0  0  0  0
    1.8329   -1.9676    1.4139 N   0  0  0  0  0  0  0  0  0  0  0  0
    2.9712   -1.4915    0.8509 C   0  0  0  0  0  0  0  0  0  0  0  0
    3.0563   -0.1894    0.4846 N   0  0  0  0  0  0  0  0  0  0  0  0
    2.0135    0.6590    0.6714 C   0  0  0  0  0  0  0  0  0  0  0  0
    2.1308    1.9961    0.2841 C   0  0  0  0  0  0  0  0  0  0  0  0
    1.0658    2.8791    0.4696 C   0  0  0  0  0  0  0  0  0  0  0  0
   -0.1390    2.4343    1.0454 C   0  0  0  0  0  0  0  0  0  0  0  0
   -1.2583    3.3209    1.2444 N   0  0  0  0  0  0  0  0  0  0  0  0
   -1.3254    4.6934    0.7412 C   0  0  0  0  0  0  0  0  0  0  0  0
   -1.4093    4.7015   -0.7585 C   0  0  0  0  0  0  0  0  0  0  0  0
   -0.5916    5.5492   -1.5206 C   0  0  0  0  0  0  0  0  0  0  0  0
   -0.7046    5.5399   -2.9123 C   0  0  0  0  0  0  0  0  0  0  0  0
   -1.6317    4.6986   -3.5294 C   0  0  0  0  0  0  0  0  0  0  0  0
   -2.4393    3.8765   -2.7393 C   0  0  0  0  0  0  0  0  0  0  0  0
   -3.7203    2.7194   -3.5500 Br  0  0  0  0  0  0  0  0  0  0  0  0
   -2.3141    3.8988   -1.3855 N   0  0  0  0  0  0  0  0  0  0  0  0
   -0.2535    1.0906    1.4390 C   0  0  0  0  0  0  0  0  0  0  0  0
    0.8158    0.1916    1.2556 C   0  0  0  0  0  0  0  0  0  0  0  0
    0.1896   -3.5284    3.7912 C   0  0  0  0  0  0  0  0  0  0  0  0
  1  2  1  0
  2  3  2  0
  3  4  1  0
  4  5  2  0
  5  6  1  0
  6  7  1  0
  7  8  1  0
  8  9  2  0
  9 10  1  0
 10 11  2  0
 11 12  1  0
 12 13  2  0
 13 14  1  0
 14 15  2  0
 15 16  1  0
 16 17  1  0
 17 18  1  0
 18 19  2  0
 19 20  1  0
 20 21  2  0
 21 22  1  0
 22 23  1  0
 22 24  2  0
 15 25  1  0
 25 26  2  0
  6 27  2  0
 27  2  1  0
 26  8  1  0
 26 12  1  0
 24 18  1  0
M  CHG  1   7   1
M  END
$$$$
CHEMBL5088102
     RDKit          3D

 37 41  0  0  0  0  0  0  0  0999 V2000
    3.1834   -0.0431   -4.5250 C   0  0  0  0  0  0  0  0  0  0  0  0
    1.8533   -0.4628   -4.8112 O   0  0  0  0  0  0  0  0  0  0  0  0
    1.4489   -1.8020   -4.9416 C   0  0  0  0  0  0  0  0  0  0  0  0
    2.3688   -2.8665   -4.8562 C   0  0  0  0  0  0  0  0  0  0  0  0
    1.9343   -4.1882   -4.9759 C   0  0  0  0  0  0  0  0  0  0  0  0
    0.5829   -4.4661   -5.1766 C   0  0  0  0  0  0  0  0  0  0  0  0
   -0.3404   -3.4233   -5.2635 C   0  0  0  0  0  0  0  0  0  0  0  0
    0.0805   -2.0847   -5.1598 C   0  0  0  0  0  0  0  0  0  0  0  0
   -0.8929   -1.0214   -5.2149 N   0  0  0  0  0  4  0  0  0  0  0  0
   -1.2991   -0.6837   -3.8809 C   0  0  0  0  0  0  0  0  0  0  0  0
   -2.3801   -1.2895   -3.3197 N   0  0  0  0  0  0  0  0  0  0  0  0
   -2.7502   -1.0111   -2.0437 C   0  0  0  0  0  0  0  0  0  0  0  0
   -2.0123   -0.1039   -1.2832 C   0  0  0  0  0  0  0  0  0  0  0  0
   -0.8887    0.5035   -1.8637 C   0  0  0  0  0  0  0  0  0  0  0  0
   -0.0396    1.4608   -1.1205 C   0  0  0  0  0  0  0  0  0  0  0  0
    1.0638    2.1087   -1.6549 C   0  0  0  0  0  0  0  0  0  0  0  0
    1.6088    2.8173   -0.6087 C   0  0  0  0  0  0  0  0  0  0  0  0
    0.8273    2.6131    0.5047 C   0  0  0  0  0  0  0  0  0  0  0  0
   -0.1646    1.7514    0.1957 N   0  0  0  0  0  0  0  0  0  0  0  0
    1.2648    3.0427    1.9083 C   0  0  0  0  0  0  0  0  0  0  0  0
    0.0468    3.5514    2.7500 C   0  0  0  0  0  0  0  0  0  0  0  0
   -0.8640    2.4507    3.3277 C   0  0  0  0  0  0  0  0  0  0  0  0
   -0.1168    1.2216    3.6153 N   0  0  0  0  0  0  0  0  0  0  0  0
   -0.8008   -0.0482    3.6210 C   0  0  0  0  0  0  0  0  0  0  0  0
   -2.0564   -0.0900    3.7193 O   0  0  0  0  0  0  0  0  0  0  0  0
   -0.0809   -1.2862    3.4757 C   0  0  0  0  0  0  0  0  0  0  0  0
    0.5299   -2.3173    3.3480 C   0  0  0  0  0  0  0  0  0  0  0  0
    1.2465   -3.5159    3.1978 N   0  0  0  0  0  0  0  0  0  0  0  0
    2.7065   -3.4980    3.1902 C   0  0  0  0  0  0  0  0  0  0  0  0
    0.5341   -4.7810    3.0450 C   0  0  0  0  0  0  0  0  0  0  0  0
    1.3248    1.3322    3.8568 C   0  0  0  0  0  0  0  0  0  0  0  0
    2.0155    1.8467    2.5937 C   0  0  0  0  0  0  0  0  0  0  0  0
    2.2463    4.2606    1.7650 C   0  0  0  0  0  0  0  0  0  0  0  0
    3.2718    4.0400    0.7381 N   0  0  0  0  0  0  0  0  0  0  0  0
    2.8972    3.4932   -0.5275 C   0  0  0  0  0  0  0  0  0  0  0  0
    3.6772    3.5486   -1.5147 O   0  0  0  0  0  0  0  0  0  0  0  0
   -0.5651    0.1970   -3.1487 N   0  0  0  0  0  0  0  0  0  0  0  0
  1  2  1  0
  2  3  1  0
  3  4  2  0
  4  5  1  0
  5  6  2  0
  6  7  1  0
  7  8  2  0
  8  9  1  0
  9 10  1  0
 10 11  2  0
 11 12  1  0
 12 13  2  0
 13 14  1  0
 14 15  1  0
 15 16  2  0
 16 17  1  0
 17 18  2  0
 18 19  1  0
 18 20  1  0
 20 21  1  0
 21 22  1  0
 22 23  1  0
 23 24  1  0
 24 25  2  0
 24 26  1  0
 26 27  3  0
 27 28  1  0
 28 29  1  0
 28 30  1  0
 23 31  1  0
 31 32  1  0
 20 33  1  0
 33 34  1  0
 34 35  1  0
 35 36  2  0
 14 37  2  0
  8  3  1  0
 37 10  1  0
 19 15  1  0
 32 20  1  0
 35 17  1  0
M  CHG  1   9   1
M  END
$$$$
CHEMBL4068047
     RDKit          3D

 43 47  0  0  0  0  0  0  0  0999 V2000
   -0.2548   -0.2134   -3.5096 C   0  0  0  0  0  0  0  0  0  0  0  0
   -0.0704    0.7580   -4.4472 C   0  0  0  0  0  0  0  0  0  0  0  0
    0.6871    2.0273   -4.4480 C   0  0  0  0  0  0  0  0  0  0  0  0
    0.9416    2.5617   -5.5582 O   0  0  0  0  0  0  0  0  0  0  0  0
    1.1833    2.6527   -3.2521 N   0  0  0  0  0  2  0  0  0  0  0  0
    0.5211    2.7295   -1.9824 C   0  0  0  0  0  0  0  0  0  0  0  0
   -0.8704    2.5868   -1.8651 C   0  0  0  0  0  0  0  0  0  0  0  0
   -1.4899    2.6779   -0.6111 C   0  0  0  0  0  0  0  0  0  0  0  0
   -2.9093    2.4529   -0.4847 N   0  0  0  0  0  0  0  0  0  0  0  0
   -3.7927    3.3061   -1.0925 C   0  0  0  0  0  0  0  0  0  0  0  0
   -3.3756    4.3077   -1.7369 O   0  0  0  0  0  0  0  0  0  0  0  0
   -5.1700    3.0847   -1.0052 C   0  0  0  0  0  0  0  0  0  0  0  0
   -5.6683    1.9917   -0.2885 C   0  0  0  0  0  0  0  0  0  0  0  0
   -7.1571    1.7779   -0.2072 C   0  0  0  0  0  0  0  0  0  0  0  0
   -4.7548    1.1227    0.3438 C   0  0  0  0  0  0  0  0  0  0  0  0
   -5.1599    0.0021    1.0919 C   0  0  0  0  0  0  0  0  0  0  0  0
   -4.2331   -0.8074    1.6665 N   0  0  0  0  0  0  0  0  0  0  0  0
   -2.9040   -0.5619    1.5367 C   0  0  0  0  0  0  0  0  0  0  0  0
   -1.9454   -1.4354    2.1608 N   0  0  0  0  0  4  0  0  0  0  0  0
   -0.9019   -1.8516    1.2419 C   0  0  0  0  0  0  0  0  0  0  0  0
   -1.2316   -2.2771   -0.0644 C   0  0  0  0  0  0  0  0  0  0  0  0
   -0.2438   -2.7337   -0.9357 C   0  0  0  0  0  0  0  0  0  0  0  0
    1.0844   -2.8097   -0.5167 C   0  0  0  0  0  0  0  0  0  0  0  0
    2.0836   -3.3179   -1.4099 N   0  0  0  0  0  0  0  0  0  0  0  0
    2.6308   -2.4541   -2.4621 C   0  0  0  0  0  0  0  0  0  0  0  0
    2.8221   -3.2262   -3.7873 C   0  0  0  0  0  0  0  0  0  0  0  0
    2.6647   -4.6886   -3.6223 N   0  0  0  0  0  0  0  0  0  0  0  0
    3.1482   -5.3938   -4.8190 C   0  0  0  0  0  0  0  0  0  0  0  0
    3.3806   -5.1566   -2.4217 C   0  0  0  0  0  0  0  0  0  0  0  0
    2.6458   -4.6526   -1.1760 C   0  0  0  0  0  0  0  0  0  0  0  0
    1.4260   -2.4312    0.7869 C   0  0  0  0  0  0  0  0  0  0  0  0
    0.4412   -1.9538    1.6762 C   0  0  0  0  0  0  0  0  0  0  0  0
    0.7602   -1.5902    2.9951 O   0  0  0  0  0  0  0  0  0  0  0  0
    2.0274   -1.7997    3.6082 C   0  0  0  0  0  0  0  0  0  0  0  0
   -2.4875    0.5267    0.8353 N   0  0  0  0  0  0  0  0  0  0  0  0
   -3.3679    1.3748    0.2324 C   0  0  0  0  0  0  0  0  0  0  0  0
   -0.7145    2.9500    0.5239 C   0  0  0  0  0  0  0  0  0  0  0  0
    0.6713    3.1466    0.4143 C   0  0  0  0  0  0  0  0  0  0  0  0
    1.5063    3.3947    1.6441 C   0  0  0  0  0  0  0  0  0  0  0  0
    0.7650    4.0366    2.6190 F   0  0  0  0  0  0  0  0  0  0  0  0
    2.5992    4.1859    1.3386 F   0  0  0  0  0  0  0  0  0  0  0  0
    1.9475    2.1855    2.1409 F   0  0  0  0  0  0  0  0  0  0  0  0
    1.2806    3.0186   -0.8429 C   0  0  0  0  0  0  0  0  0  0  0  0
  1  2  2  0
  2  3  1  0
  3  4  2  0
  3  5  1  0
  5  6  1  0
  6  7  2  0
  7  8  1  0
  8  9  1  0
  9 10  1  0
 10 11  2  0
 10 12  1  0
 12 13  2  0
 13 14  1  0
 13 15  1  0
 15 16  2  0
 16 17  1  0
 17 18  2  0
 18 19  1  0
 19 20  1  0
 20 21  2  0
 21 22  1  0
 22 23  2  0
 23 24  1  0
 24 25  1  0
 25 26  1  0
 26 27  1  0
 27 28  1  0
 27 29  1  0
 29 30  1  0
 23 31  1  0
 31 32  2  0
 32 33  1  0
 33 34  1  0
 18 35  1  0
 35 36  2  0
  8 37  2  0
 37 38  1  0
 38 39  1  0
 39 40  1  0
 39 41  1  0
 39 42  1  0
 38 43  2  0
 43  6  1  0
 36  9  1  0
 36 15  1  0
 32 20  1  0
 30 24  1  0
M  CHG  2   5  -1  19   1
M  END
$$$$
CHEMBL3425665
     RDKit          3D

 40 43  0  0  0  0  0  0  0  0999 V2000
   -3.2389   -2.9240   -0.6059 C   0  0  0  0  0  0  0  0  0  0  0  0
   -3.3975   -2.1498   -1.7014 C   0  0  0  0  0  0  0  0  0  0  0  0
   -4.5890   -1.3375   -1.8656 C   0  0  0  0  0  0  0  0  0  0  0  0
   -5.5466   -0.6945   -2.0011 N   0  0  0  0  0  0  0  0  0  0  0  0
   -2.3543   -2.1030   -2.7594 C   0  0  0  0  0  0  0  0  0  0  0  0
   -1.2519   -2.6941   -2.5834 O   0  0  0  0  0  0  0  0  0  0  0  0
   -2.6126   -1.4185   -4.0021 N   0  0  0  0  0  0  0  0  0  0  0  0
   -1.6345   -0.7350   -4.8194 C   0  0  0  0  0  0  0  0  0  0  0  0
   -2.0635   -0.1695   -6.0304 C   0  0  0  0  0  0  0  0  0  0  0  0
   -1.2014    0.6233   -6.7850 C   0  0  0  0  0  0  0  0  0  0  0  0
    0.1048    0.8477   -6.3530 C   0  0  0  0  0  0  0  0  0  0  0  0
    0.5706    0.2585   -5.1725 C   0  0  0  0  0  0  0  0  0  0  0  0
    1.9036    0.4731   -4.7952 O   0  0  0  0  0  0  0  0  0  0  0  0
    2.7135   -0.5284   -4.2546 C   0  0  0  0  0  0  0  0  0  0  0  0
    2.6185   -0.8526   -2.9383 N   0  0  0  0  0  0  0  0  0  0  0  0
    3.4357   -1.8026   -2.3892 C   0  0  0  0  0  0  0  0  0  0  0  0
    3.3210   -2.1638   -0.9998 N   0  0  0  0  0  4  0  0  0  0  0  0
    3.0144   -1.0260   -0.1622 C   0  0  0  0  0  0  0  0  0  0  0  0
    1.6680   -0.7301    0.1266 C   0  0  0  0  0  0  0  0  0  0  0  0
    1.3296    0.2701    1.0446 C   0  0  0  0  0  0  0  0  0  0  0  0
    2.3331    1.0036    1.6902 C   0  0  0  0  0  0  0  0  0  0  0  0
    1.9877    2.0080    2.6680 N   0  0  0  0  0  0  0  0  0  0  0  0
    0.9395    2.9961    2.4140 C   0  0  0  0  0  0  0  0  0  0  0  0
    1.5356    4.4113    2.4992 C   0  0  0  0  0  0  0  0  0  0  0  0
    2.3387    4.6273    3.7249 N   0  0  0  0  0  0  0  0  0  0  0  0
    1.5025    4.8555    4.9185 C   0  0  0  0  0  0  0  0  0  0  0  0
    3.3605    3.5777    3.9295 C   0  0  0  0  0  0  0  0  0  0  0  0
    2.7564    2.1678    3.9043 C   0  0  0  0  0  0  0  0  0  0  0  0
    3.6786    0.7450    1.3750 C   0  0  0  0  0  0  0  0  0  0  0  0
    4.0317   -0.2452    0.4490 C   0  0  0  0  0  0  0  0  0  0  0  0
    5.3975   -0.4229    0.1901 O   0  0  0  0  0  0  0  0  0  0  0  0
    5.9633   -0.4019   -1.1179 C   0  0  0  0  0  0  0  0  0  0  0  0
    4.3178   -2.4738   -3.1830 N   0  0  0  0  0  0  0  0  0  0  0  0
    4.4429   -2.1764   -4.5011 C   0  0  0  0  0  0  0  0  0  0  0  0
    3.6405   -1.1854   -5.0673 C   0  0  0  0  0  0  0  0  0  0  0  0
    3.8158   -0.7674   -6.7683 Cl  0  0  0  0  0  0  0  0  0  0  0  0
   -0.3096   -0.5084   -4.3903 C   0  0  0  0  0  0  0  0  0  0  0  0
   -4.2268   -2.9834    0.5429 C   0  0  0  0  0  0  0  0  0  0  0  0
   -4.3915   -4.4302    1.0208 C   0  0  0  0  0  0  0  0  0  0  0  0
   -3.7359   -2.0918    1.6887 C   0  0  0  0  0  0  0  0  0  0  0  0
  1  2  2  0
  2  3  1  0
  3  4  3  0
  2  5  1  0
  5  6  2  0
  5  7  1  0
  7  8  1  0
  8  9  2  0
  9 10  1  0
 10 11  2  0
 11 12  1  0
 12 13  1  0
 13 14  1  0
 14 15  2  0
 15 16  1  0
 16 17  1  0
 17 18  1  0
 18 19  2  0
 19 20  1  0
 20 21  2  0
 21 22  1  0
 22 23  1  0
 23 24  1  0
 24 25  1  0
 25 26  1  0
 25 27  1  0
 27 28  1  0
 21 29  1  0
 29 30  2  0
 30 31  1  0
 31 32  1  0
 16 33  2  0
 33 34  1  0
 34 35  2  0
 35 36  1  0
 12 37  2  0
  1 38  1  0
 38 39  1  0
 38 40  1  0
 37  8  1  0
 35 14  1  0
 30 18  1  0
 28 22  1  0
M  CHG  1  17   1
M  END
$$$$
