CHEMBL460721
     RDKit          3D

 34 36  0  0  0  0  0  0  0  0999 V2000
    0.9685   -1.4491    1.8149 C   0  0  0  0  0  0  0  0  0  0  0  0
    1.8320   -2.0165    2.8756 C   0  0  0  0  0  0  0  0  0  0  0  0
    2.7479   -1.3171    3.3859 O   0  0  0  0  0  0  0  0  0  0  0  0
    1.6472   -3.3534    3.3552 N   0  0  0  0  0  2  0  0  0  0  0  0
    0.6581   -4.2933    2.8396 C   0  0  0  0  0  0  0  0  0  0  0  0
    0.7095   -5.6105    3.6212 C   0  0  0  0  0  0  0  0  0  0  0  0
    1.9746   -6.4383    3.3310 C   0  0  0  0  0  0  0  0  0  0  0  0
    3.2142   -5.7227    3.7087 N   0  0  0  0  0  0  0  0  0  0  0  0
    4.4034   -6.0177    2.8723 C   0  0  0  0  0  0  0  0  0  0  0  0
    4.5986   -7.5070    2.5411 C   0  0  0  0  0  0  0  0  0  0  0  0
    3.4844   -5.6221    5.1642 C   0  0  0  0  0  0  0  0  0  0  0  0
    4.0130   -6.9105    5.7998 C   0  0  0  0  0  0  0  0  0  0  0  0
    1.1115   -0.1892    1.3826 C   0  0  0  0  0  0  0  0  0  0  0  0
    0.2478    0.4291    0.3529 C   0  0  0  0  0  0  0  0  0  0  0  0
    0.6821    1.4487   -0.2486 O   0  0  0  0  0  0  0  0  0  0  0  0
   -1.1078   -0.1201   -0.0204 C   0  0  0  0  0  0  0  0  0  0  0  0
   -2.1092    0.9876   -0.1906 C   0  0  0  0  0  0  0  0  0  0  0  0
   -2.8640    1.3744    0.8734 N   0  0  0  0  0  0  0  0  0  0  0  0
   -3.7615    2.3897    0.7876 C   0  0  0  0  0  0  0  0  0  0  0  0
   -3.9207    3.0839   -0.4137 C   0  0  0  0  0  0  0  0  0  0  0  0
   -4.8117    4.1040   -0.4950 N   0  0  0  0  0  0  0  0  0  0  0  0
   -4.9723    4.7981   -1.6476 C   0  0  0  0  0  0  0  0  0  0  0  0
   -4.2338    4.4834   -2.7410 N   0  0  0  0  0  0  0  0  0  0  0  0
   -3.3238    3.4696   -2.7296 C   0  0  0  0  0  0  0  0  0  0  0  0
   -2.5460    3.2258   -3.9222 N   0  0  0  0  0  4  0  0  0  0  0  0
   -1.2330    3.8173   -3.8052 C   0  0  0  0  0  0  0  0  0  0  0  0
   -0.0761    3.0181   -3.8864 C   0  0  0  0  0  0  0  0  0  0  0  0
    1.1922    3.5967   -3.7831 C   0  0  0  0  0  0  0  0  0  0  0  0
    1.3232    4.9778   -3.6206 C   0  0  0  0  0  0  0  0  0  0  0  0
    0.1844    5.7866   -3.5655 C   0  0  0  0  0  0  0  0  0  0  0  0
    0.3642    7.6759   -3.3546 Br  0  0  0  0  0  0  0  0  0  0  0  0
   -1.0880    5.2116   -3.6613 C   0  0  0  0  0  0  0  0  0  0  0  0
   -3.1445    2.7250   -1.5368 C   0  0  0  0  0  0  0  0  0  0  0  0
   -2.2345    1.6589   -1.4163 C   0  0  0  0  0  0  0  0  0  0  0  0
  1  2  1  0
  2  3  2  0
  2  4  1  0
  4  5  1  0
  5  6  1  0
  6  7  1  0
  7  8  1  0
  8  9  1  0
  9 10  1  0
  8 11  1  0
 11 12  1  0
  1 13  2  0
 13 14  1  0
 14 15  2  0
 14 16  1  0
 16 17  1  0
 17 18  2  0
 18 19  1  0
 19 20  2  0
 20 21  1  0
 21 22  2  0
 22 23  1  0
 23 24  2  0
 24 25  1  0
 25 26  1  0
 26 27  2  0
 27 28  1  0
 28 29  2  0
 29 30  1  0
 30 31  1  0
 30 32  2  0
 24 33  1  0
 33 34  2  0
 34 17  1  0
 33 20  1  0
 32 26  1  0
M  CHG  2   4  -1  25   1
M  END
$$$$
CHEMBL4858409
     RDKit          3D

 35 38  0  0  0  0  0  0  0  0999 V2000
   -1.4228    0.8419    0.2279 O   0  0  0  0  0  0  0  0  0  0  0  0
   -2.6385    0.8940    0.5281 C   0  0  0  0  0  0  0  0  0  0  0  0
   -3.0276    1.4920    1.7664 N   0  0  0  0  0  0  0  0  0  0  0  0
   -2.1246    2.1425    2.5385 O   0  0  0  0  0  0  0  0  0  0  0  0
   -3.6529    0.3535   -0.3958 C   0  0  0  0  0  0  0  0  0  0  0  0
   -4.7663    1.1589   -0.6877 C   0  0  0  0  0  0  0  0  0  0  0  0
   -5.7266    0.7403   -1.6237 C   0  0  0  0  0  0  0  0  0  0  0  0
   -5.5785   -0.4768   -2.2764 C   0  0  0  0  0  0  0  0  0  0  0  0
   -4.4832   -1.2934   -1.9788 C   0  0  0  0  0  0  0  0  0  0  0  0
   -3.5178   -0.9091   -1.0362 C   0  0  0  0  0  0  0  0  0  0  0  0
   -2.4340   -1.8198   -0.7393 N   0  0  0  0  0  4  0  0  0  0  0  0
   -1.5182   -1.8695   -1.8552 C   0  0  0  0  0  0  0  0  0  0  0  0
   -0.8616   -0.7320   -2.2180 N   0  0  0  0  0  0  0  0  0  0  0  0
    0.0261   -0.7171   -3.2461 C   0  0  0  0  0  0  0  0  0  0  0  0
    0.6763    0.5096   -3.6154 N   0  0  0  0  0  4  0  0  0  0  0  0
    1.4133    1.0286   -2.4897 C   0  0  0  0  0  0  0  0  0  0  0  0
    2.6178    0.4314   -2.0884 C   0  0  0  0  0  0  0  0  0  0  0  0
    3.3054    0.9007   -0.9651 C   0  0  0  0  0  0  0  0  0  0  0  0
    2.7954    1.9761   -0.2216 C   0  0  0  0  0  0  0  0  0  0  0  0
    3.4451    2.4874    0.9135 O   0  0  0  0  0  0  0  0  0  0  0  0
    4.5698    1.8937    1.5591 C   0  0  0  0  0  0  0  0  0  0  0  0
    4.1730    0.6556    2.2988 C   0  0  0  0  0  0  0  0  0  0  0  0
    4.3912   -0.4709    1.7876 O   0  0  0  0  0  0  0  0  0  0  0  0
    3.5593    0.7421    3.5888 N   0  0  0  0  0  0  0  0  0  0  0  0
    4.0628   -0.0699    4.6970 C   0  0  0  0  0  0  0  0  0  0  0  0
    2.9418   -1.0058    5.1726 C   0  0  0  0  0  0  0  0  0  0  0  0
    1.7513   -0.2795    5.4550 O   0  0  0  0  0  0  0  0  0  0  0  0
    1.2574    0.3377    4.2794 C   0  0  0  0  0  0  0  0  0  0  0  0
    2.2456    1.3869    3.7604 C   0  0  0  0  0  0  0  0  0  0  0  0
    1.5963    2.5726   -0.6238 C   0  0  0  0  0  0  0  0  0  0  0  0
    0.9088    2.1036   -1.7460 C   0  0  0  0  0  0  0  0  0  0  0  0
    0.2686   -1.8607   -3.9429 N   0  0  0  0  0  0  0  0  0  0  0  0
   -0.3659   -3.0201   -3.6307 C   0  0  0  0  0  0  0  0  0  0  0  0
   -1.2842   -3.0567   -2.5794 C   0  0  0  0  0  0  0  0  0  0  0  0
   -2.1035   -4.5768   -2.2228 Cl  0  0  0  0  0  0  0  0  0  0  0  0
  1  2  2  0
  2  3  1  0
  3  4  1  0
  2  5  1  0
  5  6  2  0
  6  7  1  0
  7  8  2  0
  8  9  1  0
  9 10  2  0
 10 11  1  0
 11 12  1  0
 12 13  2  0
 13 14  1  0
 14 15  1  0
 15 16  1  0
 16 17  2  0
 17 18  1  0
 18 19  2  0
 19 20  1  0
 20 21  1  0
 21 22  1  0
 22 23  2  0
 22 24  1  0
 24 25  1  0
 25 26  1  0
 26 27  1  0
 27 28  1  0
 28 29  1  0
 19 30  1  0
 30 31  2  0
 14 32  2  0
 32 33  1  0
 33 34  2  0
 34 35  1  0
 10  5  1  0
 34 12  1  0
 31 16  1  0
 29 24  1  0
M  CHG  2  11   1  15   1
M  END
$$$$
CHEMBL3133894
     RDKit          3D

 22 24  0  0  0  0  0  0  0  0999 V2000
    1.3896    4.7336    5.4638 C   0  0  0  0  0  0  0  0  0  0  0  0
    0.8730    3.6774    6.0900 C   0  0  0  0  0  0  0  0  0  0  0  0
    0.0760    2.6413    5.4062 C   0  0  0  0  0  0  0  0  0  0  0  0
   -0.5611    1.8126    6.1104 O   0  0  0  0  0  0  0  0  0  0  0  0
    0.0600    2.5275    3.9725 N   0  0  0  0  0  0  0  0  0  0  0  0
   -0.9646    1.8325    3.2397 C   0  0  0  0  0  0  0  0  0  0  0  0
   -2.2932    1.8004    3.6968 C   0  0  0  0  0  0  0  0  0  0  0  0
   -3.2796    1.1461    2.9575 C   0  0  0  0  0  0  0  0  0  0  0  0
   -2.9571    0.5227    1.7490 C   0  0  0  0  0  0  0  0  0  0  0  0
   -3.9288   -0.0973    1.0332 N   0  0  0  0  0  0  0  0  0  0  0  0
   -3.6487   -0.6962   -0.1492 C   0  0  0  0  0  0  0  0  0  0  0  0
   -2.3821   -0.6878   -0.6329 N   0  0  0  0  0  0  0  0  0  0  0  0
   -1.3515   -0.0977    0.0365 C   0  0  0  0  0  0  0  0  0  0  0  0
   -0.0066   -0.0955   -0.5165 N   0  0  0  0  0  4  0  0  0  0  0  0
    0.2257   -0.9012   -1.7400 C   0  0  0  0  0  0  0  0  0  0  0  0
   -0.5260   -0.3438   -2.9845 C   0  0  0  0  0  0  0  0  0  0  0  0
   -1.0388   -1.4515   -3.9184 C   0  0  0  0  0  0  0  0  0  0  0  0
    0.0132   -2.5526   -4.0938 C   0  0  0  0  0  0  0  0  0  0  0  0
    0.3912   -3.2337   -2.7596 C   0  0  0  0  0  0  0  0  0  0  0  0
    0.0037   -2.4169   -1.5126 C   0  0  0  0  0  0  0  0  0  0  0  0
   -1.6290    0.5502    1.2661 C   0  0  0  0  0  0  0  0  0  0  0  0
   -0.6432    1.2229    2.0165 C   0  0  0  0  0  0  0  0  0  0  0  0
  1  2  2  0
  2  3  1  0
  3  4  2  0
  3  5  1  0
  5  6  1  0
  6  7  2  0
  7  8  1  0
  8  9  2  0
  9 10  1  0
 10 11  2  0
 11 12  1  0
 12 13  2  0
 13 14  1  0
 14 15  1  0
 15 16  1  0
 16 17  1  0
 17 18  1  0
 18 19  1  0
 19 20  1  0
 13 21  1  0
 21 22  2  0
 22  6  1  0
 21  9  1  0
 20 15  1  0
M  CHG  1  14   1
M  END
$$$$
